!-----------------------------------------------------------------------
!                     'exmHCO01.inp'
!   C-H-O system machanism based on ...
!-----------------------------------------------------------------------
!
!ELEMENTS
! H
! C
! N
! O
!END
!
!
!ELEM H
!ELEM C
!ELEM N
!ELEM O
!
ELEM  H C N O END
!
!ELEMENTS
!  H C N O
!END
!-----------------------------------------------------------------------
SPECIES
  H2 H O2 O OH HO2 H2O2 H2O N2
  CH3 CH4
...(snip)...
END
!-----------------------------------------------------------------------
THERMO
CH3               121286C   1H   3          G  0300.00   5000.00  1000.00      1
 0.02844051E+02 0.06137974E-01-0.02230345E-04 0.03785161E-08-0.02452159E-12    2
 0.16437809E+05 0.05452697E+02 0.02430442E+02 0.11124099E-01-0.01680220E-03    3
 0.16218288E-07-0.05864952E-10 0.16423781E+05 0.06789794E+02                   4
END
!-----------------------------------------------------------------------
REACTIONS  KJOULES/MOLE  MOLECULES
  H + CH3 (+M) = CH4 (+M)        3.50E-10   0.      0.    !94CEC (300-1000K)
     LOW /1.726E-24 -1.8 0./                              ! for M=Ar
     TROE /0.63 61. 3315./
...(snip)...
END
!-----------------------------------------------------------------------
